LAMMPS (30 Mar 2018)
units           real
atom_style      full

pair_style        lj/charmm/coul/long 8.0 10.0 10.0
bond_style        harmonic
angle_style       charmm
dihedral_style    charmm
improper_style    harmonic
kspace_style      pppm 0.0001

# Define variables
variable tlo equal 150
variable thi equal 350
variable rep equal 0
variable temp equal 305.0
variable steps equal 1000000

read_data         data.peptide
  orthogonal box = (36.8402 41.0137 29.7681) to (64.2116 68.3851 57.1395)
  reading atoms ...
  2004 atoms
  reading velocities ...
  2004 velocities
  scanning bonds ...
  scanning angles ...
  scanning dihedrals ...
  scanning impropers ...
  reading bonds ...
  1365 bonds
  reading angles ...
  786 angles
  reading dihedrals ...
  207 dihedrals
  reading impropers ...
  12 impropers

neighbor          2.0 bin
neigh_modify      delay 5

timestep          2.0

thermo_style      custom step temp pe etotal enthalpy press
thermo            50

fix               fxnvt all nvt temp 305 305 100.0 tchain 1
fix	              fxSTMD all stmd 1000000 constant_f 0.001 0.00002 150 350 -8500 -5500 12 50000 500000 fxnvt no
fix               2 all shake 0.0001 10 0 b 4 6 8 10 12 14 18 a 31

group             peptide type <= 12
84 atoms in group peptide
#dump_modify       mydump pad 8
#dump_modify       mydump unwrap yes

run               1000000
PPPM initialization ...
  G vector (1/distance) = 0.268725
  grid = 15 15 15
  stencil order = 5
  estimated absolute RMS force accuracy = 0.0228209
  estimated relative force accuracy = 6.87243e-05
  3d grid and FFT values/proc = 1960 256
STMD: STAGE= 1, #bins= 251  binsize= 12.000000
  Emin= -8500.000000 Emax= -5500.000000 f-value= 1.024290 df= 0.001000
  f-tolerances: STG3= 1.000480 STG4= 1.000048
  update every 1 steps, delay 5 steps, check yes
  STMD DIG: istep= 0  TSC1= 50000 Tlow= 1.147104
Step Temp PotEng TotEng Enthalpy Press
0    303.06656   -6135.9847   -4916.7176   -4142.6592    2588.2629
Averages over the last 500 of 1000 rows, steps 25000 to 49950:
Temp PotEng TotEng Enthalpy Press
305.075 -6038.22 -4810.87 -4651.77 532.001
  STMD DIG: istep= 50000  TSC1= 50000 Tlow= 1.084553
  STMD DIG: istep= 100000  TSC1= 50000 Tlow= 1.008354
  STMD DIG: istep= 150000  TSC1= 50000 Tlow= 1.009310
  STMD DIG: istep= 200000  TSC1= 50000 Tlow= 0.700143
  STMD DIG: istep= 250000  TSC1= 50000 Tlow= 0.975166
  STMD DIG: istep= 300000  TSC1= 50000 Tlow= 1.042354
  STMD DIG: istep= 350000  TSC1= 50000 Tlow= 0.731619
Loop time of 2611.91 on 16 procs for 1000000 steps with 2004 atoms

#write_restart     restart.peptide.*
