LAMMPS (13 Apr 2017)
Processor partition = 1
units           real
atom_style      full

pair_style        lj/charmm/coul/long 8.0 10.0 10.0
bond_style        harmonic
angle_style       charmm
dihedral_style    charmm
improper_style    harmonic
kspace_style      pppm 0.0001

# Define variables
variable tlo world 220 270
variable thi world 300 350
variable rep world 0 1
variable temp equal 305.0
variable steps equal 1000000

read_data         data.peptide
  orthogonal box = (36.8402 41.0137 29.7681) to (64.2116 68.3851 57.1395)
  reading atoms ...
  2004 atoms
  reading velocities ...
  2004 velocities
  scanning bonds ...
  scanning angles ...
  scanning dihedrals ...
  scanning impropers ...
  reading bonds ...
  1365 bonds
  reading angles ...
  786 angles
  reading dihedrals ...
  207 dihedrals
  reading impropers ...
  12 impropers

neighbor          2.0 bin
neigh_modify      delay 5

timestep          2.0

thermo_style      custom step temp pe etotal enthalpy press
thermo            50

fix               1 all nvt temp 305 305 100.0 tchain 1
fix	              fxSTMD all stmd 1000000 constant 0.001 0.00002 270 350 -7500 -5500 12 50000 500000 305 no
fix               2 all shake 0.0001 10 0 b 4 6 8 10 12 14 18 a 31

group             peptide type <= 12
84 atoms in group peptide
dump              mydump peptide dcd 1000 1.dcd
dump_modify       mydump pad 8
dump_modify       mydump unwrap yes

temper/stmd       1000000 1000 305 fxSTMD 0 12345 off
PPPM initialization ...
  G vector (1/distance) = 0.268725
  grid = 15 15 15
  stencil order = 5
  estimated absolute RMS force accuracy = 0.0228209
  estimated relative force accuracy = 6.87243e-05
  3d grid and FFT values/proc = 2744 512
RESTMD: #replicas= 2  walker= 1
STMD: STAGE= 1, #bins= 168  binsize= 12.000000
  Emin= -7500.000000 Emax= -5500.000000 f-value= 1.024290 df= 0.001000
  f-tolerances: STG3= 1.000000 STG4= 1.000000
  update every 1 steps, delay 5 steps, check yes
  STMD DIG: istep= 0  TSC1= 50000 T= 1.147104
Step Temp PotEng TotEng Enthalpy Press
0    303.06656   -6135.9847   -4916.7176   -4142.6592    2588.2629
Averages over the last 500 of 1000 rows, steps 25000 to 49950:
Temp PotEng TotEng Enthalpy Press
305.371 -6047.2 -4818.66 -4670.79 494.46
  STMD DIG: istep= 50000  TSC1= 50000 T= 1.140507
  STMD DIG: istep= 100000  TSC1= 50000 T= 0.936815
Loop time of 4377.99 on 8 procs for 1000000 steps with 2004 atoms

write_restart     1/restart.peptide.*
PPPM initialization ...
  G vector (1/distance) = 0.268725
  grid = 15 15 15
  stencil order = 5
  estimated absolute RMS force accuracy = 0.0228209
  estimated relative force accuracy = 6.87243e-05
  3d grid and FFT values/proc = 2744 512
RESTMD: #replicas= 2  walker= 1
STMD: STAGE= 1, #bins= 168  binsize= 12.000000
  Emin= -7500.000000 Emax= -5500.000000 f-value= 1.024290 df= 0.001000
  f-tolerances: STG3= 1.000000 STG4= 1.000000
write_data        data.peptide.1
PPPM initialization ...
  G vector (1/distance) = 0.268725
  grid = 15 15 15
  stencil order = 5
  estimated absolute RMS force accuracy = 0.0228209
  estimated relative force accuracy = 6.87243e-05
  3d grid and FFT values/proc = 2744 512
RESTMD: #replicas= 2  walker= 1
STMD: STAGE= 1, #bins= 168  binsize= 12.000000
  Emin= -7500.000000 Emax= -5500.000000 f-value= 1.024290 df= 0.001000
  f-tolerances: STG3= 1.000000 STG4= 1.000000
