LAMMPS (30 Nov 2016)
# LJ particles
variable        T0 equal 300.0
variable        TL equal 250.0
variable        TH equal 350.0

units           real
atom_style      full
pair_style      lj/cut 5.0

read_data       "lj-stg3.data"
  orthogonal box = (1.06874 1.06874 1.06874) to (23.9313 23.9313 23.9313)
  reading atoms ...
  500 atoms
  reading velocities ...
  500 velocities

thermo          10
thermo_style    custom step temp pe etotal press

timestep        1.0

fix             fxnvt all nvt temp 300 300 1000.0
fix             fxSTMD all stmd 100000 sqrt 1.01 250 350 -3500 -2250 2 10000 100000 300 1

run             100000
STMD: STAGE= 3 #bins= 626  binsize 2
  1 neighbor list requests
  update every 1 steps, delay 10 steps, check yes
Step Temp PotEng TotEng Press
0    299.26326   -3147.7656   -2702.6342    1874.9717
Averages over the last 5001 of 10001 rows, steps 50000 to 100000:
Temp PotEng TotEng Press
300.847 -3130.27 -2682.78 2538.31
Loop time of 45.5031 on 4 procs for 100000 steps with 500 atoms

#write_data      lj-out.data
