LAMMPS (10 Jun 2014)
Processor partition = 1
# ------------------------------- Initialization Section --------------------
units           real
atom_style      full
include         "system.in.init"
    bond_style      hybrid harmonic
    angle_style     hybrid cosine/squared
    #pair_style      hybrid lj/gromacs/coul/gromacs 9 12 0.000001 12
    pair_style      hybrid lj/gromacs/coul/gromacs 9 12 0.000001 12
    special_bonds   lj/coul 0 1 1
    neigh_modify    every 10
     dielectric      15
     pair_style      hybrid lj/gromacs/coul/gromacs 9 12 0.000001 12
     dielectric      15
     pair_style      hybrid lj/gromacs/coul/gromacs 9 12 0.000001 12

# ------------------------------- Atom Definition Section -------------------

# Read the coordinates generated by an earlier simulation

#read_data       "system.data"
#read_data       "system_after_min.data"
read_data       "system_after_npt.data"
  orthogonal box = (-7.02847 -7.02327 13.3246) to (104.528 104.451 136.675)
  reading atoms ...
  12261 atoms
  reading velocities ...
  12261 velocities
  scanning bonds ...
  scanning angles ...
  reading bonds ...
  4290 bonds
  reading angles ...
  3120 angles

# ------------------------------- Settings Section --------------------------

include         system.in.settings
    pair_coeff 2 2 lj/gromacs/coul/gromacs  0.8365200764818 4.7
    pair_coeff 2 3 lj/gromacs/coul/gromacs  1.0755258126195 4.7
    pair_coeff 2 4 lj/gromacs/coul/gromacs  0.9560229445507 4.7
    pair_coeff 2 5 lj/gromacs/coul/gromacs  0.4780114722753 6.2
    pair_coeff 3 3 lj/gromacs/coul/gromacs  1.1950286806883 4.7
    pair_coeff 3 4 lj/gromacs/coul/gromacs  0.9560229445507 4.7
    pair_coeff 3 5 lj/gromacs/coul/gromacs  0.4780114722753 6.2
    pair_coeff 4 4 lj/gromacs/coul/gromacs  0.9560229445507 4.7
    pair_coeff 4 5 lj/gromacs/coul/gromacs  0.6453154875717 4.7
    pair_coeff 5 5 lj/gromacs/coul/gromacs  0.8365200764818 4.7
    bond_coeff 1           harmonic              1.4937858508604 4.7
    bond_coeff 2        harmonic              1.4937858508604 3.7
    angle_coeff  1       cosine/squared        2.9875717017208 180
    angle_coeff  2       cosine/squared        2.9875717017208 120
    pair_coeff 1 1  lj/gromacs/coul/gromacs  1.1950286806883 4.7
    pair_coeff 6 6  lj/gromacs/coul/gromacs  1.1950286806883 4.7
pair_coeff 1 2 lj/gromacs/coul/gromacs 1.3384321223709 4.7
pair_coeff 1 3 lj/gromacs/coul/gromacs 1.3384321223709 4.7
pair_coeff 1 4 lj/gromacs/coul/gromacs 0.9560229445507 4.7
pair_coeff 1 5 lj/gromacs/coul/gromacs 0.4780114722753 4.7
pair_coeff 1 6 lj/gromacs/coul/gromacs 1.3384321223709 5.7
pair_coeff 2 6 lj/gromacs/coul/gromacs 1.3384321223709 4.7
pair_coeff 3 6 lj/gromacs/coul/gromacs 1.3384321223709 4.7
pair_coeff 4 6 lj/gromacs/coul/gromacs 0.9560229445507 4.7
pair_coeff 5 6 lj/gromacs/coul/gromacs 0.4780114722753 4.7

# ------------------------------- Run Section -------------------------------
# -- simulation protocol --
# Define variables
variable tlo world 200 210
variable thi world 500 510
#variable w world ZZZ # order of walkers from last output, replace in submission script with latest order from output

timestep        30.0    # (40.0 should be possible for lipid systems)
thermo          100
thermo_style    custom step temp pe etotal enthalpy press vol spcpu

# Continue the simulation at constant volume (NVT) at 323K.
dump     id2 all dcd 1000 dcd/restmd-210-510.dcd
dump_modify id2 unwrap yes
fix      fxnvt all nvt temp 323 323 3000.0

# STMD
fix     fxstmd all stmd 50000 1.5 210 510 -80000 -20000 256 10000 500000 323 10000 1 1
#       fixname all stmd RSTFRQ finit Tlo Thi Ulo Uhi binsize TSC1 TSC2 T0 PRTFRQ RE_flag OREST_flag

restart     100000 restart/210-510.*.restart

# Replica Exchange run
restmd  300000 500 323 fxstmd 0 12345 1
RESTMD: nReplica= 2  walker= 1
STMD Check initial values...
STMD STG= 2 N= 236  bin= 256
STMD Ynew(Y2)=  0.650155 0.650155 0.650155 0.650155 0.650155 0.650155 0.650155 0.650155 0.650155 0.650155 0.650155 0.650155 0.650155 0.650155 0.650155 0.650155 0.650155 0.650155 0.650155 0.650155 0.650155 0.650155 0.650155 0.650155 0.650155 0.650155 0.650155 0.650155 0.650155 0.650155 0.650155 0.650155 0.650155 0.650155 0.650155 0.650155 0.650155 0.650155 0.650155 0.650155 0.650155 0.650155 0.650155 0.650155 0.650155 0.658633 0.686565 0.736407 0.722503 0.755349 0.730444 0.749966 0.795812 0.819040 0.843102 0.881967 0.891935 0.905364 0.920544 0.951050 0.981354 1.006382 1.017737 1.051641 1.081360 1.077669 1.092588 1.152415 1.128723 1.164101 1.189319 1.205211 1.235879 1.250567 1.278421 1.304842 1.321225 1.345151 1.368476 1.398794 1.409725 1.428868 1.428868 1.480812 1.416049 1.498383 1.503736 1.569137 1.578947 1.578947 1.578947 1.578947 1.578947 1.578947 1.578947 1.578947 1.578947 1.578947 1.578947 1.578947 1.578947 1.578947 1.578947 1.578947 1.578947 1.578947 1.578947 1.578947 1.578947 1.578947 1.578947 1.578947 1.578947 1.578947 1.578947 1.578947 1.578947 1.578947 1.578947 1.578947 1.578947 1.578947 1.578947 1.578947 1.578947 1.578947 1.578947 1.578947 1.578947 1.578947 1.578947 1.578947 1.578947 1.578947 1.578947 1.578947 1.578947 1.578947 1.578947 1.578947 1.578947 1.578947 1.578947 1.578947 1.578947 1.578947 1.578947 1.578947 1.578947 1.578947 1.578947 1.578947 1.578947 1.578947 1.578947 1.578947 1.578947 1.578947 1.578947 1.578947 1.578947 1.578947 1.578947 1.578947 1.578947 1.578947 1.578947 1.578947 1.578947 1.578947 1.578947 1.578947 1.578947 1.578947 1.578947 1.578947 1.578947 1.578947 1.578947 1.578947 1.578947 1.578947 1.578947 1.578947 1.578947 1.578947 1.578947 1.578947 1.578947 1.578947 1.578947 1.578947 1.578947 1.578947 1.578947 1.578947 1.578947 1.578947 1.578947 1.578947 1.578947 1.578947 1.578947 1.578947 1.578947 1.578947 1.578947 1.578947 1.578947 1.578947 1.578947 1.578947 1.578947 1.578947 1.578947 1.578947 1.578947 1.578947 1.578947 1.578947 1.578947 1.578947 1.578947 1.578947 1.578947 1.578947 1.578947 1.578947 1.578947 1.578947 1.578947 1.578947 1.578947 1.578947 1.578947 1.578947
RESTMD STAGE 2
RESTMD STG2: istep= 0  TSC2= 500000
RESTMD STG2: f= 1.500000  df= 0.000792
RESTMD STG2: STG= 2
Step Temp PotEng TotEng Enthalpy Press Volume S/CPU
0    322.41283   -64538.051   -52755.561   -52599.468     6.977405    1533959.3            0
Averages over the last 1501 of 3001 rows, steps 150000 to 300000:
Temp PotEng TotEng Enthalpy Press Volume
322.167 -63700.2 -51926.7 -49769.9 96.4088 1.53396e+06
Loop time of 1076.05 on 8 procs for 300000 steps with 12261 atoms

Pair  time (%) = 735.589 (68.36)
Bond  time (%) = 15.6931 (1.4584)
Neigh time (%) = 123.329 (11.4612)
Comm  time (%) = 158.705 (14.7488)
Outpt time (%) = 1.3925 (0.129408)
Other time (%) = 41.3425 (3.84206)

#       steps nevery T0 fixname seed1 seed2 EX_flag $w_list-of-walkers
