LAMMPS (30 Nov 2016)
# LJ particles
variable        T0 equal 300.0
variable        TL equal 250.0
variable        TH equal 350.0

units           real
atom_style      full
pair_style      lj/cut 5.0

read_data       "lj.data"
  orthogonal box = (1.06874 1.06874 1.06874) to (23.9313 23.9313 23.9313)
  reading atoms ...
  500 atoms
  reading velocities ...
  500 velocities

thermo          10
thermo_style    custom step temp pe etotal press

timestep        1.0

fix             fxnvt all nvt temp 300 300 1000.0
fix             fxSTMD all stmd 10000 constant 1.01 250 350 -3500 -2250 2 10000 100000 300 0

run             40000
STMD: STAGE= 1 #bins= 626  binsize 2
  1 neighbor list requests
  update every 1 steps, delay 10 steps, check yes
STMD STAGE 1
STMD STAGE1 DIG: istep= 0  TSC1= 10000 T= 1.166667
Step Temp PotEng TotEng Press
0    301.05109   -2869.3094   -2421.5187    11727.584
Averages over the last 500 of 1000 rows, steps 5000 to 9990:
Temp PotEng TotEng Press
308.094 -2886.39 -2428.12 10941.5
STMD STAGE 1
STMD STAGE1 DIG: istep= 10000  TSC1= 10000 T= 1.001051
STMD STAGE 1
STMD STAGE1 DIG: istep= 20000  TSC1= 10000 T= 1.038830
Loop time of 14.7913 on 4 procs for 40000 steps with 500 atoms

write_data      lj-out.data
STMD: STAGE= 1 #bins= 626  binsize 2
