LAMMPS (22 Aug 2018)
Processor partition = 1
# Must be run with at LEAST 2 procs in 'partition mode'

units           real
atom_style      full

pair_style        lj/charmm/coul/long 8.0 10.0 10.0
bond_style        harmonic
angle_style       charmm
dihedral_style    charmm
improper_style    harmonic
kspace_style      pppm 0.0001

# Define variables
variable tlo world 220 270
variable thi world 300 350
variable rep world 0 1
variable temp equal 305.0
variable steps equal 10000

read_data         data.peptide
  orthogonal box = (36.8402 41.0137 29.7681) to (64.2116 68.3851 57.1395)
  reading atoms ...
  2004 atoms
  reading velocities ...
  2004 velocities
  scanning bonds ...
  scanning angles ...
  scanning dihedrals ...
  scanning impropers ...
  reading bonds ...
  1365 bonds
  reading angles ...
  786 angles
  reading dihedrals ...
  207 dihedrals
  reading impropers ...
  12 impropers

neighbor          2.0 bin
neigh_modify      delay 5

timestep          2.0

thermo_style      custom step temp pe etotal enthalpy press
thermo            50

fix               fxnvt all nvt temp 305 305 100.0 tchain 1
fix               fxSTMD all stmd 10000 constant_f 0.001 270 350 -8500 -5500 12 50000 500000 fxnvt no
fix               2 all shake 0.0001 10 0 b 4 6 8 10 12 14 18 a 31

group             peptide type <= 12
84 atoms in group peptide
#dump_modify       mydump unwrap yes

# Run in partition mode, but with exchanges OFF until STG2
temper/stmd       10000 1000 fxSTMD fxnvt 0 12345 off
PPPM initialization ...
  G vector (1/distance) = 0.268725
  grid = 15 15 15
  stencil order = 5
  estimated absolute RMS force accuracy = 0.0228209
  estimated relative force accuracy = 6.87243e-05
  3d grid and FFT values/proc = 2772 450
  update every 1 steps, delay 5 steps, check yes
RESTMD: #replicas=2  walker=1
STMD: STAGE=1, #bins=251  binsize=12.000000
  Emin=-8500.000000 Emax=-5500.000000 f-value=1.024290 df=0.001000
  f-tolerances: STG3=1.000480 STG4=1.000048
Step Temp PotEng TotEng Enthalpy Press
0    303.06656   -6135.9847   -4916.7176   -4142.6592    2588.2629
Averages over the last 101 of 201 rows, steps 5000 to 10000:
Temp PotEng TotEng Enthalpy Press
305.2 -5966.9 -4739.05 -4369.72 1234.94
Loop time of 26.312 on 14 procs for 10000 steps with 2004 atoms

quit
